24

C      -1.90007930      -0.01180491      -1.63051319
C       0.87349469      -0.01023939      -1.76821915
C      -1.20564674      -1.21381033      -1.65931829
C      -1.20758387       1.19098295      -1.67103029
C       0.17915587       1.19167022      -1.73987307
C       0.18110787      -1.21293268      -1.72799219
H      -2.98312785      -0.01239662      -1.57479944
H      -1.74970769       2.12993064      -1.64644374
H       0.72018058       2.13112890      -1.76828739
H       1.95680577      -0.00959486      -1.81797251
H       0.72362449      -2.15176759      -1.74701794
H      -1.74626146      -2.15334648      -1.62565114
C      -1.04276513       0.00660438       1.20777829
C       1.73079327       0.00816985       1.07007850
C      -0.34843214      -1.19529353       1.17943874
C      -0.35038422       1.20928613       1.16755800
C       1.03636300       1.21016618       1.09888633
C       1.03830008      -1.19460875       1.11059824
H      -2.12607520       0.00595978       1.25753750
H      -0.89290110       2.14811978       1.18659394
H       1.57697669       2.14970259       1.06522938
H       2.81384166       0.00876150       1.01437093
H       1.58042281      -2.13355664       1.08602198
H      -0.88945704      -2.13475088       1.20786337
