47

 C -2.335   1.498   5.390 
 C -2.573   0.058   4.841 
 C -3.154   0.011   3.393 
 H -3.030  -1.024   3.026 
 C -4.675   0.327   3.240 
 H -4.908   1.357   3.541 
 C -5.105   0.213   1.754 
 H -4.534   0.924   1.133 
 H -4.917  -0.811   1.390 
 O -6.509   0.511   1.658 
 H -6.838   0.455   0.766 
 O -5.517  -0.583   3.973 
 H -5.456  -0.489   4.917 
 O -2.408   0.897   2.540 
 H -1.479   0.691   2.518 
 H -3.222  -0.530   5.505 
 O -1.304  -0.625   4.790 
 H -0.882  -0.701   5.640 
 H -1.926   1.471   6.411 
 H -1.510   1.913   4.791 
 N -3.532   2.354   5.356 
 C -4.597   2.143   6.189 
 C -4.605   1.191   7.220 
 C -5.761   0.911   7.962 
 C -6.942   1.619   7.705 
 C -6.918   2.647   6.758 
 H -7.801   3.252   6.581 
 C -5.759   2.911   6.026 
 N -5.767   3.928   5.145 
 C -4.777   4.187   4.398 
 C -4.784   5.293   3.434 
 O -5.764   6.017   3.365 
 N -3.692   5.455   2.656 
 H -3.687   6.203   1.988 
 C -2.607   4.647   2.741 
 O -1.641   4.821   2.015 
 N -2.581   3.637   3.637 
 C -3.583   3.342   4.492 
 C -8.252   1.291   8.437 
 H -8.412   0.203   8.474 
 H -9.121   1.739   7.932 
 H -8.204   1.687   9.462 
 C -5.721  -0.170   9.055 
 H -4.692  -0.438   9.336 
 H -6.225  -1.074   8.683 
 H -6.231   0.182   9.964 
 H -3.711   0.642   7.480 
