39

Pt       0.00000000      -0.00000000      -0.00030000
H       2.03386738       0.70130178      -2.30230666
H       0.04269541      -2.15095741       2.30170666
Cl       0.00030000      -2.36000000      -0.00030000
Cl      -0.00030000       2.36000000      -0.00030000
N       2.09000000       0.00030000      -0.00030000
N      -2.09000000      -0.00030000      -0.00030000
C       2.73180000       0.81510000       0.81440000
C       2.73190000      -0.81820000      -0.81130000
C      -2.73180000      -0.81510000       0.81440000
C      -2.73190000       0.81820000      -0.81130000
C       4.11260000       0.84350000       0.84270000
C       4.11280000      -0.84680000      -0.83910000
C      -4.11260000      -0.84350000       0.84270000
C      -4.11280000       0.84680000      -0.83910000
C       4.82350000       0.00060000      -0.00030000
C      -4.82350000      -0.00060000      -0.00030000
Cl       6.55950000       0.00130000      -0.00080000
Cl      -6.55950000      -0.00130000      -0.00080000
H       2.17110000       1.46800000       1.46690000
H       2.17140000      -1.47410000      -1.46090000
H      -2.17110000      -1.46800000       1.46690000
H      -2.17140000       1.47410000      -1.46090000
H       4.63230000       1.51320000       1.51180000
H       4.63270000      -1.51970000      -1.50480000
H      -4.63230000      -1.51320000       1.51180000
H      -4.63270000       1.51970000      -1.50480000
C       0.00000000       0.00000000      -2.15030000
H      -0.42737409       0.92518564      -2.50964620
H      -0.58741681      -0.83280163      -2.50964616
C       1.44694859      -0.13172653      -2.66323548
H       1.87379190      -1.05704518      -2.30230666
H       1.44710192      -0.13174049      -3.74430497
C       0.00000000       0.00000000       2.14970000
H      -1.01579734       0.08229731       2.50904620
H       0.57930153       0.83846694       2.50904616
C       0.62238139      -1.31287985       2.66263548
H       1.63812064      -1.39463306       2.30170666
H       0.62244734      -1.31301897       3.74370497
