25

Pt       0.00000000      -0.00000000      -0.00030000
H      -4.63229598      -1.51321229       1.51180000
H      -4.63270403       1.51968771      -1.50480000
Cl      -0.00377708      -2.35999700      -0.00030000
Cl      -0.00030000       2.36000000      -0.00030000
N       2.09000000       0.00030000      -0.00030000
N      -2.09000000      -0.00030555      -0.00030000
C       2.73180000       0.81510000       0.81440000
C       2.73190000      -0.81820000      -0.81130000
C      -2.73179784      -0.81510725       0.81440000
C      -2.73190217       0.81819275      -0.81130000
C       4.11260000       0.84350000       0.84270000
C       4.11280000      -0.84680000      -0.83910000
C      -4.11259776      -0.84351091       0.84270000
C      -4.11280225       0.84678909      -0.83910000
C       4.82350000       0.00060000      -0.00030000
C      -4.82350000      -0.00061280      -0.00030000
Cl       6.55950000       0.00130000      -0.00080000
Cl      -6.55950000      -0.00131741      -0.00080000
H       2.17110000       1.46800000       1.46690000
H       2.17140000      -1.47410000      -1.46090000
H      -2.17109610      -1.46800576       1.46690000
H      -2.17140391       1.47409424      -1.46090000
H       4.63230000       1.51320000       1.51180000
H       4.63270000      -1.51970000      -1.50480000
