16

C      -0.5058742951       0.7197846249       1.4873502327
O      -1.8467123470       1.0371356691       1.5578617129
O       0.2426104621       0.8031328420       2.4444063939
H      -1.2336711895      -0.1871011373      -3.0847664179
H       1.1181735289      -0.9674586781      -3.3575709511
O      -2.2996282296       0.6761194013      -0.9441961430
H       1.8534242875      -0.1774201547       0.8154069061
H      -2.5401517031       0.9226546484      -0.0164069755
H       2.6629785819      -0.9669531279      -1.4040236989
H      -2.0724918515       1.3639645877       2.4489574275
C      -1.0116321368       0.2602883042      -0.9839670361
C      -0.5476048834      -0.1835433773      -2.2354228233
C       0.7686298918      -0.6221529110      -2.3859139467
C       1.6373720529      -0.6205255079      -1.2863630033
C       1.1825135366      -0.1770749455      -0.0425597678
C      -0.1335817057       0.2638847621       0.1265310905