15

         C       1.57069295      -0.27708399       0.90970331
         O       2.12128736       0.87456945       1.36157624
         O       2.07282352      -1.37947564       1.11228461
         H      -1.99350927       2.19343258      -1.05192987
         H      -3.07456482       0.09440138      -1.81135919
         O       0.21528019       2.32492362       0.26785454
         H       0.15858899      -2.19801533      -0.12644583
         H      -1.98350403      -2.08943892      -1.37694501
         H       2.92149221       0.61570028       1.85487304
         C      -0.27365246       1.24312943      -0.09274131
         C      -1.53614397       1.22738446      -0.83792248
         C      -2.13094250       0.06375743      -1.26848661
         C      -1.51494870      -1.17520266      -1.01801439
         C      -0.30749228      -1.23200960      -0.31149813
         C       0.30093635      -0.08278875       0.15391948
