21

Pt       0.00000000      -0.00000000      -0.00030000
H      -4.63229598      -1.51321229       1.51180000
H      -4.63270403       1.51968771      -1.50480000
Cl      -0.00377708      -2.35999700      -0.00030000
Cl      -0.00030000       2.36000000      -0.00030000
H       2.30203774      -0.21629964       2.14014671
N      -2.09000000      -0.00030555      -0.00030000
H      -2.17109610      -1.46800576       1.46690000
C      -4.82350000      -0.00061280      -0.00030000
C      -2.73179784      -0.81510725       0.81440000
C      -2.73190217       0.81819275      -0.81130000
H      -2.17140391       1.47409424      -1.46090000
Cl      -6.55950000      -0.00131741      -0.00080000
C      -4.11259776      -0.84351091       0.84270000
C      -4.11280225       0.84678909      -0.83910000
C       2.14999998       0.00030861      -0.00030000
H       2.50919989       1.01948581      -0.00011996
H       2.50941928      -0.50918491      -0.88289892
C       2.66303975      -0.72620763       1.25790478
H       2.30225720      -1.74528313       1.25718712
H       3.74410923      -0.72612945       1.25803810
