6

Cl       0.46729049      -2.79309149      -0.82858294
H       0.12646066      -4.26815028      -2.68771656
C      -0.45681177      -3.80208959      -1.89556770
C      -1.77013249      -4.02333140      -1.80041949
Cl      -2.69423475      -5.03232949      -2.86740426
H      -2.35340491      -3.55727073      -1.00827061
