13

C       0.88294615      -1.06820000       0.51350769
C       0.31894615      -0.02290000      -0.45089231
N       1.14854615       1.18830000      -0.39999231
C      -1.09355385       0.31850000      -0.05179231
O      -1.31675385       1.32500000       0.57840769
O      -2.10375385      -0.49550000      -0.39629231
H       1.90454615      -1.31520000       0.22490769
H       0.26734615      -1.96700000       0.47580769
H       0.87864615      -0.66720000       1.52710769
H       0.32324615      -0.42390000      -1.46439231
H       1.11534615       1.52280000       0.55130769
H       0.68454615       1.88170000      -0.96749231
H      -3.01005385      -0.27640000      -0.14019231
