6

C      -0.75086900       1.37782400      -2.43303700
C      -0.05392100       2.51281000      -2.41769100
H      -1.78964800       1.33942600      -2.09651100
H      -0.30849400       0.43896500      -2.76734700
H      -0.49177100       3.45043100      -2.06789100
H       0.98633900       2.54913500      -2.74329400
